12

C      -0.80719243       1.43040510      -4.00000581
C      -2.02794917       0.75848845      -4.00163619
C      -2.05640721      -0.63467626      -4.00294776
C      -0.86412701      -1.35589875      -4.00262888
C       0.35662020      -0.68398529      -4.00099852
C       0.38509738       0.70917889      -4.00031305
H      -2.97043243       1.32861395      -0.00188823
H      -3.02138968      -1.16584771      -0.00423655
H      -0.88663063      -2.45718178      -0.00366565
H       1.29909924      -1.25413395      -0.00074650
H       1.35008308       1.24032714      -4.00160183
H      -0.78468884       2.53168379      -4.00103096
